dss/import/capas-pablo/Formato-interfaz/cooperativa-linegeometry-loadshape-csv-curvasdecarga/Line.dss
New Line.idlinea145_idtramos_1 Bus1=23 Bus2=80 Length=40.575 Geometry=Geometria_S35 Units=m Phases=3 Enabled=true
New Line.idlinea146_idtramos_2 Bus1=23 Bus2=1 Length=12.926 Geometry=Geometria_S35 Units=m Phases=3 Enabled=true
New Line.idlinea146_idtramos_3 Bus1=1 Bus2=2 Length=41.476 Geometry=Geometria_S35 Units=m Phases=3 Enabled=true
New Line.idlinea147_idtramos_4 Bus1=3 Bus2=88 Length=10.615 Geometry=Geometria_S95 Units=m Phases=3 Enabled=true
New Line.idlinea148_idtramos_5 Bus1=21 Bus2=24 Length=38.666 Geometry=Geometria_S35 Units=m Phases=3 Enabled=true
New Line.idlinea149_idtramos_6 Bus1=37 Bus2=4 Length=28.564 Geometry=Geometria_S35 Units=m Phases=3 Enabled=true
New Line.idlinea150_idtramos_7 Bus1=40 Bus2=102 Length=67.164 Geometry=Geometria_S35 Units=m Phases=3 Enabled=true
New Line.idlinea151_idtramos_8 Bus1=104 Bus2=43 Length=8.713 Geometry=Geometria_S35 Units=m Phases=3 Enabled=true
New Line.idlinea152_idtramos_9 Bus1=104 Bus2=5 Length=11.284 Geometry=Geometria_S35 Units=m Phases=3 Enabled=true
New Line.idlinea155_idtramos_10 Bus1=23 Bus2=26 Length=185.044 Geometry=Geometria_S120 Units=m Phases=3 Enabled=true
New Line.idlinea173_idtramos_11 Bus1=6 Bus2=46 Length=79.298 Geometry=Geometria_S35 Units=m Phases=3 Enabled=true
New Line.idlinea174_idtramos_12 Bus1=7 Bus2=50 Length=60.317 Geometry=Geometria_S35 Units=m Phases=3 Enabled=true
New Line.idlinea175_idtramos_13 Bus1=49 Bus2=50 Length=35.543 Geometry=Geometria_S35 Units=m Phases=3 Enabled=true
New Line.idlinea160_idtramos_14 Bus1=48 Bus2=8 Length=222.605 Geometry=Geometria_S35 Units=m Phases=3 Enabled=true
New Line.idlinea160_idtramos_15 Bus1=8 Bus2=65 Length=16.407 Geometry=Geometria_S35 Units=m Phases=3 Enabled=true
New Line.idlinea162_idtramos_16 Bus1=73 Bus2=84 Length=362.756 Geometry=Geometria_S35 Units=m Phases=3 Enabled=true
New Line.idlinea163_idtramos_17 Bus1=72 Bus2=74 Length=22.841 Geometry=Geometria_S35 Units=m Phases=3 Enabled=true
New Line.idlinea164_idtramos_18 Bus1=68 Bus2=69 Length=22.366 Geometry=Geometria_S35 Units=m Phases=3 Enabled=true
New Line.idlinea165_idtramos_19 Bus1=60 Bus2=61 Length=15.737 Geometry=Geometria_S16 Units=m Phases=3 Enabled=true
New Line.idlinea166_idtramos_20 Bus1=55 Bus2=56 Length=20.291 Geometry=Geometria_S35 Units=m Phases=3 Enabled=true
New Line.idlinea168_idtramos_21 Bus1=51 Bus2=9 Length=114.039 Geometry=Geometria_S50 Units=m Phases=3 Enabled=true
New Line.idlinea168_idtramos_22 Bus1=9 Bus2=53 Length=170.108 Geometry=Geometria_S50 Units=m Phases=3 Enabled=true
New Line.idlinea170_idtramos_23 Bus1=54 Bus2=55 Length=193.189 Geometry=Geometria_S25 Units=m Phases=3 Enabled=true
New Line.idlinea171_idtramos_24 Bus1=46 Bus2=10 Length=80.513 Geometry=Geometria_S35 Units=m Phases=3 Enabled=true
New Line.idlinea172_idtramos_25 Bus1=31 Bus2=6 Length=22.212 Geometry=Geometria_S35 Units=m Phases=3 Enabled=true
New Line.idlinea177_idtramos_26 Bus1=26 Bus2=11 Length=101.667 Geometry=Geometria_S120 Units=m Phases=3 Enabled=true
New Line.idlinea178_idtramos_27 Bus1=11 Bus2=28 Length=108.454 Geometry=Geometria_S70 Units=m Phases=3 Enabled=true
New Line.idlinea179_idtramos_28 Bus1=33 Bus2=34 Length=1141.512 Geometry=Geometria_S50 Units=m Phases=3 Enabled=true
New Line.idlinea167_idtramos_29 Bus1=63 Bus2=12 Length=19.284 Geometry=Geometria_S25 Units=m Phases=3 Enabled=true
New Line.idlinea169_idtramos_30 Bus1=13 Bus2=51 Length=276.091 Geometry=Geometria_S70 Units=m Phases=3 Enabled=true
New Line.idlinea286_idtramos_31 Bus1=84 Bus2=14 Length=23.774 Geometry=Geometria_S35 Units=m Phases=3 Enabled=true
New Line.idlinea286_idtramos_32 Bus1=14 Bus2=15 Length=10.572 Geometry=Geometria_S35 Units=m Phases=3 Enabled=true
New Line.idlinea286_idtramos_33 Bus1=15 Bus2=76 Length=152.001 Geometry=Geometria_S35 Units=m Phases=3 Enabled=true
New Line.idlinea290_idtramos_34 Bus1=90 Bus2=94 Length=5.009 Geometry=Geometria_S95 Units=m Phases=3 Enabled=true
New Line.idlinea161_idtramos_35 Bus1=67 Bus2=16 Length=20.68 Geometry=Geometria_S35 Units=m Phases=3 Enabled=true
New Line.idlinea161_idtramos_36 Bus1=16 Bus2=17 Length=15.806 Geometry=Geometria_S35 Units=m Phases=3 Enabled=true
New Line.idlinea161_idtramos_37 Bus1=17 Bus2=68 Length=116.776 Geometry=Geometria_S35 Units=m Phases=3 Enabled=true
New Line.idlinea710_idtramos_38 Bus1=89 Bus2=18 Length=12.42 Geometry=Geometria_S95 Units=m Phases=3 Enabled=true
New Line.idlinea710_idtramos_39 Bus1=18 Bus2=19 Length=21.094 Geometry=Geometria_S95 Units=m Phases=3 Enabled=true
New Line.idlinea710_idtramos_40 Bus1=19 Bus2=90 Length=4.716 Geometry=Geometria_S95 Units=m Phases=3 Enabled=true
New Line.idlinea712_idtramos_41 Bus1=93 Bus2=78 Length=155.666 Geometry=Geometria_S95 Units=m Phases=3 Enabled=true
New Line.idlinea713_idtramos_42 Bus1=79 Bus2=20 Length=40.975 Geometry=Geometria_S95 Units=m Phases=3 Enabled=true
New Line.idlinea713_idtramos_43 Bus1=20 Bus2=21 Length=26.842 Geometry=Geometria_S95 Units=m Phases=3 Enabled=true
New Line.idlinea714_idtramos_44 Bus1=21 Bus2=22 Length=41.536 Geometry=Geometria_S95 Units=m Phases=3 Enabled=true
New Line.idlinea714_idtramos_45 Bus1=22 Bus2=23 Length=120.432 Geometry=Geometria_S95 Units=m Phases=3 Enabled=true
New Line.idlinea715_idtramos_46 Bus1=24 Bus2=25 Length=162.672 Geometry=Geometria_S35 Units=m Phases=3 Enabled=true
New Line.idlinea716_idtramos_47 Bus1=26 Bus2=27 Length=3.225 Geometry=Geometria_S120 Units=m Phases=3 Enabled=true
New Line.idlinea718_idtramos_48 Bus1=28 Bus2=29 Length=117.489 Geometry=Geometria_S70 Units=m Phases=3 Enabled=true
New Line.idlinea719_idtramos_49 Bus1=29 Bus2=30 Length=136.059 Geometry=Geometria_S70 Units=m Phases=3 Enabled=true
New Line.idlinea719_idtramos_50 Bus1=30 Bus2=31 Length=103.104 Geometry=Geometria_S70 Units=m Phases=3 Enabled=true
New Line.idlinea720_idtramos_51 Bus1=31 Bus2=32 Length=89.533 Geometry=Geometria_S70 Units=m Phases=3 Enabled=true
New Line.idlinea721_idtramos_52 Bus1=32 Bus2=33 Length=136.284 Geometry=Geometria_S70 Units=m Phases=3 Enabled=true
New Line.idlinea722_idtramos_53 Bus1=34 Bus2=35 Length=117.111 Geometry=Geometria_S50 Units=m Phases=3 Enabled=true
New Line.idlinea723_idtramos_54 Bus1=25 Bus2=36 Length=145.713 Geometry=Geometria_S35 Units=m Phases=3 Enabled=true
New Line.idlinea724_idtramos_55 Bus1=37 Bus2=38 Length=216.664 Geometry=Geometria_S35 Units=m Phases=3 Enabled=true
New Line.idlinea725_idtramos_56 Bus1=36 Bus2=37 Length=81.082 Geometry=Geometria_S35 Units=m Phases=3 Enabled=true
New Line.idlinea726_idtramos_57 Bus1=38 Bus2=39 Length=349.016 Geometry=Geometria_S35 Units=m Phases=3 Enabled=true
New Line.idlinea727_idtramos_58 Bus1=39 Bus2=40 Length=30.731 Geometry=Geometria_S35 Units=m Phases=3 Enabled=true
New Line.idlinea728_idtramos_59 Bus1=40 Bus2=41 Length=12.44 Geometry=Geometria_S35 Units=m Phases=3 Enabled=true
New Line.idlinea729_idtramos_60 Bus1=104 Bus2=42 Length=23.496 Geometry=Geometria_S35 Units=m Phases=3 Enabled=true
New Line.idlinea730_idtramos_61 Bus1=43 Bus2=44 Length=7.992 Geometry=Geometria_S35 Units=m Phases=3 Enabled=true
New Line.idlinea739_idtramos_62 Bus1=45 Bus2=105 Length=62.183 Geometry=Geometria_S70 Units=m Phases=3 Enabled=true
New Line.idlinea740_idtramos_63 Bus1=46 Bus2=47 Length=109.797 Geometry=Geometria_S35 Units=m Phases=3 Enabled=true
New Line.idlinea741_idtramos_64 Bus1=47 Bus2=48 Length=16.795 Geometry=Geometria_S35 Units=m Phases=3 Enabled=true
New Line.idlinea742_idtramos_65 Bus1=48 Bus2=49 Length=81.225 Geometry=Geometria_S35 Units=m Phases=3 Enabled=true
New Line.idlinea743_idtramos_66 Bus1=50 Bus2=51 Length=114.746 Geometry=Geometria_S35 Units=m Phases=3 Enabled=true
New Line.idlinea744_idtramos_67 Bus1=51 Bus2=52 Length=23.296 Geometry=Geometria_S35 Units=m Phases=3 Enabled=true
New Line.idlinea745_idtramos_68 Bus1=53 Bus2=54 Length=11.732 Geometry=Geometria_S50 Units=m Phases=3 Enabled=true
New Line.idlinea746_idtramos_69 Bus1=55 Bus2=58 Length=23.717 Geometry=Geometria_S25 Units=m Phases=3 Enabled=true
New Line.idlinea747_idtramos_70 Bus1=56 Bus2=57 Length=261.165 Geometry=Geometria_S35 Units=m Phases=3 Enabled=true
New Line.idlinea748_idtramos_71 Bus1=58 Bus2=59 Length=36.266 Geometry=Geometria_S25 Units=m Phases=3 Enabled=true
New Line.idlinea749_idtramos_72 Bus1=60 Bus2=63 Length=9.709 Geometry=Geometria_S25 Units=m Phases=3 Enabled=true
New Line.idlinea750_idtramos_73 Bus1=61 Bus2=62 Length=264.579 Geometry=Geometria_S35 Units=m Phases=3 Enabled=true
New Line.idlinea751_idtramos_74 Bus1=63 Bus2=64 Length=275.066 Geometry=Geometria_S25 Units=m Phases=3 Enabled=true
New Line.idlinea752_idtramos_75 Bus1=65 Bus2=66 Length=36.386 Geometry=Geometria_S35 Units=m Phases=3 Enabled=true
New Line.idlinea752_idtramos_76 Bus1=66 Bus2=67 Length=19.17 Geometry=Geometria_S35 Units=m Phases=3 Enabled=true
New Line.idlinea753_idtramos_77 Bus1=68 Bus2=72 Length=25.176 Geometry=Geometria_S35 Units=m Phases=3 Enabled=true
New Line.idlinea754_idtramos_78 Bus1=69 Bus2=70 Length=56.014 Geometry=Geometria_S35 Units=m Phases=3 Enabled=true
New Line.idlinea754_idtramos_79 Bus1=70 Bus2=71 Length=70.949 Geometry=Geometria_S35 Units=m Phases=3 Enabled=true
New Line.idlinea755_idtramos_80 Bus1=72 Bus2=73 Length=42.178 Geometry=Geometria_S35 Units=m Phases=3 Enabled=true
New Line.idlinea756_idtramos_81 Bus1=74 Bus2=75 Length=137.521 Geometry=Geometria_S35 Units=m Phases=3 Enabled=true
New Line.idlinea758_idtramos_82 Bus1=76 Bus2=77 Length=89.047 Geometry=Geometria_S35 Units=m Phases=3 Enabled=true
New Line.idlinea899_idtramos_83 Bus1=78 Bus2=79 Length=22.579 Geometry=Geometria_S95 Units=m Phases=3 Enabled=true
New Line.idlinea908_idtramos_84 Bus1=80 Bus2=81 Length=207.223 Geometry=Geometria_S35 Units=m Phases=3 Enabled=true
New Line.idlinea909_idtramos_85 Bus1=82 Bus2=83 Length=170.6 Geometry=Geometria_S35 Units=m Phases=3 Enabled=true
New Line.idlinea923_idtramos_86 Bus1=84 Bus2=85 Length=32.803 Geometry=Geometria_S35 Units=m Phases=3 Enabled=true
New Line.idlinea923_idtramos_87 Bus1=85 Bus2=86 Length=39.723 Geometry=Geometria_S35 Units=m Phases=3 Enabled=true
New Line.idlinea923_idtramos_88 Bus1=86 Bus2=87 Length=39.313 Geometry=Geometria_S35 Units=m Phases=3 Enabled=true
New Line.idlinea939_idtramos_89 Bus1=88 Bus2=89 Length=26.829 Geometry=Geometria_S95 Units=m Phases=3 Enabled=true
New Line.idlinea900_idtramos_90 Bus1=78 Bus2=82 Length=26.248 Geometry=Geometria_S35 Units=m Phases=3 Enabled=true
New Line.idlinea891_idtramos_91 Bus1=90 Bus2=91 Length=20.697 Geometry=Geometria_S95 Units=m Phases=3 Enabled=true
New Line.idlinea891_idtramos_92 Bus1=91 Bus2=92 Length=32.129 Geometry=Geometria_S95 Units=m Phases=3 Enabled=true
New Line.idlinea891_idtramos_93 Bus1=92 Bus2=93 Length=20.725 Geometry=Geometria_S95 Units=m Phases=3 Enabled=true
New Line.idlinea897_idtramos_94 Bus1=94 Bus2=95 Length=7.24 Geometry=Geometria_S95 Units=m Phases=3 Enabled=true
New Line.idlinea954_idtramos_95 Bus1=59 Bus2=60 Length=81.889 Geometry=Geometria_S25 Units=m Phases=3 Enabled=true
New Line.idlinea955_idtramos_96 Bus1=59 Bus2=96 Length=45.3 Geometry=Geometria_S95 Units=m Phases=3 Enabled=true
New Line.idlinea956_idtramos_97 Bus1=96 Bus2=97 Length=121.09 Geometry=Geometria_S95 Units=m Phases=3 Enabled=true
New Line.idlinea956_idtramos_98 Bus1=97 Bus2=98 Length=186.876 Geometry=Geometria_S95 Units=m Phases=3 Enabled=true
New Line.idlinea956_idtramos_99 Bus1=98 Bus2=99 Length=235.189 Geometry=Geometria_S95 Units=m Phases=3 Enabled=true
New Line.idlinea957_idtramos_100 Bus1=99 Bus2=100 Length=270.36 Geometry=Geometria_S95 Units=m Phases=3 Enabled=true
New Line.idlinea957_idtramos_101 Bus1=100 Bus2=101 Length=30.08 Geometry=Geometria_S95 Units=m Phases=3 Enabled=true
New Line.idlinea961_idtramos_102 Bus1=102 Bus2=103 Length=10.848 Geometry=Geometria_S35 Units=m Phases=3 Enabled=true
New Line.idlinea961_idtramos_103 Bus1=103 Bus2=104 Length=166.22 Geometry=Geometria_S35 Units=m Phases=3 Enabled=true
New Line.idlinea991_idtramos_104 Bus1=62 Bus2=105 Length=273.675 Geometry=Geometria_S50 Units=m Phases=3 Enabled=true
New Line.idlinea908_idtramos_105 Bus1=81 Bus2=106 Length=117.197 Geometry=Geometria_S50 Units=m Phases=3 Enabled=true
